-------------------------------------------------------
          Amber 20 SANDER                              2020
          -------------------------------------------------------

  [-O]verwriting output

File Assignments:

 Here is the input file:

Hair pin 1, 10 angstrom cut off
 &cntrl
  imin = 0, ntb = 0,
  igb = 0, ntpr = 100, ntwx = 100,
  ntt = 3, gamma_ln = 1.0,
  tempi = 300.0, temp0 = 300.0
  nstlim = 36000, dt = 0.001,
  cut = 10.0
 /

--------------------------------------------------------------------------------
   1.  RESOURCE   USE:
--------------------------------------------------------------------------------

 NATOM  =   10160 NTYPES =      16 NBONH =   10010 MBONA  =     161
 NTHETH =     182 MTHETA =     246 NPHIH =     396 MPHIA  =     511
 NHPARM =       0 NPARM  =       0 NNB   =   14469 NRES   =    3324
 NBONA  =     161 NTHETA =     246 NPHIA =     511 NUMBND =      44
 NUMANG =      84 NPTRA  =      62 NATYP =      29 NPHB   =       1
 IFBOX  =       2 NMXRS  =      33 IFCAP =       0 NEXTRA =       0
 NCOPY  =       0

     BOX TYPE: TRUNCATED OCTAHEDRON

--------------------------------------------------------------------------------
   2.  CONTROL  DATA  FOR  THE  RUN
--------------------------------------------------------------------------------

DG

General flags:
     imin    =       0, nmropt  =       0

Nature and format of input:
     ntx     =       1, irest   =       0, ntrx    =       1

Nature and format of output:
     ntxo    =       2, ntpr    =     100, ntrx    =       1, ntwr    =   36000
     iwrap   =       0, ntwx    =     100, ntwv    =       0, ntwe    =       0
     ioutfm  =       1, ntwprt  =       0, idecomp =       0, rbornstat=      0

Potential function:
     ntf     =       1, ntb     =       0, igb     =       0, nsnb    =      25
     ipol    =       0, gbsa    =       0, iesp    =       0
     dielc   =   1.00000, cut     =  10.00000, intdiel =   1.00000

Frozen or restrained atoms:
     ibelly  =       0, ntr     =       0

Molecular dynamics:
     nstlim  =     36000, nscm    =      1000, nrespa  =         1
     t       =   0.00000, dt      =   0.00100, vlimit  =  20.00000

Langevin dynamics temperature regulation:
     ig      =   71277
     temp0   = 300.00000, tempi   = 300.00000, gamma_ln=   1.00000

--------------------------------------------------------------------------------
   3.  ATOMIC COORDINATES AND VELOCITIES
--------------------------------------------------------------------------------

DG
 begin time read from input coords =     0.000 ps

 Number of triangulated 3-point waters found:     3311

     Sum of charges from parm topology file =  -0.99999996

--------------------------------------------------------------------------------
   4.  RESULTS
 NSTEP =        0   TIME(PS) =       0.000  TEMP(K) =   301.87  PRESS =     0.0
 Etot   =    -13613.8043  EKtot   =      9141.9354  EPtot      =    -22755.7397
 BOND   =      2936.6793  ANGLE   =        73.7127  DIHED      =       196.4792
 1-4 NB =        50.6724  1-4 EEL =     -1185.1340  VDWAALS    =      6827.1090
 EELEC  =    -31655.2582  EHBOND  =         0.0000  RESTRAINT  =         0.0000
 ------------------------------------------------------------------------------

      A V E R A G E S   O V E R   36000 S T E P S

 NSTEP =    36000   TIME(PS) =      36.000  TEMP(K) =   303.74  PRESS =     0.0
 Etot   =    -15089.0896  EKtot   =      9198.7401  EPtot      =    -24287.8297
 BOND   =      6418.5006  ANGLE   =       115.4049  DIHED      =       222.3087
 1-4 NB =        58.0863  1-4 EEL =     -1185.6747  VDWAALS    =      6554.3392
 EELEC  =    -36470.7947  EHBOND  =         0.0000  RESTRAINT  =         0.0000
 ------------------------------------------------------------------------------

      R M S  F L U C T U A T I O N S

 NSTEP =    36000   TIME(PS) =      36.000  TEMP(K) =     7.72  PRESS =     0.0
 Etot   =      3258.7834  EKtot   =       233.9261  EPtot      =      3226.5136
 BOND   =       267.0129  ANGLE   =         8.7700  DIHED      =         5.3998
 1-4 NB =         2.9302  1-4 EEL =         9.3726  VDWAALS    =       174.9623
 EELEC  =      3281.1850  EHBOND  =         0.0000  RESTRAINT  =         0.0000
 ------------------------------------------------------------------------------
